Circuit: * C:\Users\Nahuel\OneDrive - UTN.BA\2022\Teoría de Circuitos II\Practica\Trabajos Practicos\tp2\Ejercicio 8\Ej_8.asc

Direct Newton iteration for .op point succeeded.
Ignoring empty pin current: Ix(u1:1)
Ignoring empty pin current: Ix(u1:2)
Ignoring empty pin current: Ix(u1:1)
Ignoring empty pin current: Ix(u1:2)

Date: Tue Jun 21 19:33:40 2022
Total elapsed time: 0.046 seconds.

tnom = 27
temp = 27
method = trap
totiter = 3
traniter = 0
tranpoints = 0
accept = 0
rejected = 0
matrix size = 7
fillins = 2
solver = Normal
Matrix Compiler1:      15 opcodes
Matrix Compiler2: 487 bytes object code size
