Circuit: * C:\Users\Nahuel\OneDrive - UTN.BA\2022\Teoría de Circuitos II\Practica\Trabajos Practicos\tp2\pruebas\TP2_EJ9y10 (1)\tp2_ej9.asc

Ignoring empty pin current: Ix(u1:1)
Ignoring empty pin current: Ix(u1:2)
Ignoring empty pin current: Ix(u2:1)
Ignoring empty pin current: Ix(u2:2)
Ignoring empty pin current: Ix(u3:1)
Ignoring empty pin current: Ix(u3:2)
Ignoring empty pin current: Ix(u4:1)
Ignoring empty pin current: Ix(u4:2)
Ignoring empty pin current: Ix(u5:1)
Ignoring empty pin current: Ix(u5:2)
Ignoring empty pin current: Ix(u6:1)
Ignoring empty pin current: Ix(u6:2)
Ignoring empty pin current: Ix(u7:1)
Ignoring empty pin current: Ix(u7:2)
Ignoring empty pin current: Ix(u8:1)
Ignoring empty pin current: Ix(u8:2)
Ignoring empty pin current: Ix(u9:1)
Ignoring empty pin current: Ix(u9:2)
Ignoring empty pin current: Ix(u10:1)
Ignoring empty pin current: Ix(u10:2)

Date: Thu Jun 09 02:26:30 2022
Total elapsed time: 0.050 seconds.

tnom = 27
temp = 27
method = trap
totiter = 0
traniter = 0
tranpoints = 0
accept = 0
rejected = 0
matrix size = 22
fillins = 23
solver = Normal

