Circuit: * C:\Users\Nahuel\OneDrive - UTN.BA\2022\Teoría de Circuitos II\Practica\Trabajos Practicos\TP4\Ejercicio 4\Draft1.asc


Date: Thu Oct 20 01:25:00 2022
Total elapsed time: 0.029 seconds.

tnom = 27
temp = 27
method = trap
totiter = 0
traniter = 0
tranpoints = 0
accept = 0
rejected = 0
matrix size = 3
fillins = 0
solver = Normal

