Circuit: * C:\Users\Nahuel\OneDrive - UTN.BA\2022\Teoría de Circuitos II\Practica\Trabajos Practicos\Tp1\Ejercicio 1\Spice\Draft1.asc

Direct Newton iteration for .op point succeeded.

Date: Tue Jun 21 01:15:09 2022
Total elapsed time: 0.049 seconds.

tnom = 27
temp = 27
method = trap
totiter = 3
traniter = 0
tranpoints = 0
accept = 0
rejected = 0
matrix size = 6
fillins = 2
solver = Normal
Matrix Compiler1:      16 opcodes
Matrix Compiler2: 428 bytes object code size
