Circuit: * C:\Users\Nahuel\OneDrive - UTN.BA\2022\Teoría de Circuitos II\Practica\Tp1\Ejercicio 1\Spice\Ej_1_a.asc

Direct Newton iteration for .op point succeeded.

Date: Wed May 04 17:44:08 2022
Total elapsed time: 0.037 seconds.

tnom = 27
temp = 27
method = trap
totiter = 3
traniter = 0
tranpoints = 0
accept = 0
rejected = 0
matrix size = 3
fillins = 0
solver = Normal
Matrix Compiler1:       3 opcodes
Matrix Compiler2: 155 bytes object code size
